PSHELL   10921   1       .05
PSHELL   10922   1       .05
PSHELL   10923   1       .05
PSHELL   10924   1       .05
PSHELL   10925   1       .05
PSHELL   10926   1       .05
PSHELL   10927   1       .05
PSHELL   10928   1       .05
PSHELL   10929   1       .05
PSHELL   10930   1       .05
PSHELL   10931   1       .05
PSHELL   10932   1       .05
PSHELL   10933   1       .05
PSHELL   10934   1       .05
PSHELL   10935   1       .05
PSHELL   10936   1       .05
PSHELL   10937   1       .05
PSHELL   10938   1       .05
PSHELL   10939   1       .05
PSHELL   10940   1       .05
$ ... 63 like lines cut
PCOMP    10598                                   75.     0.      SMEAR  +
+        2       .163167 0.      YES     2       .108552 45.     YES    +
+        2       .108552-45.     YES     2       .16249  90.     YES
CQUAD4   10598   10598   10274   10278   10279   10275  -90.0004
PCOMP    10599                                   75.     0.      SMEAR  +
+        2       .165372 0.      YES     2       .105253 45.     YES    +
+        2       .105253-45.     YES     2       .150388 90.     YES
CQUAD4   10599   10599   10275   10279   10280   10276  -89.9584
PCOMP    10600                                   75.     0.      SMEAR  +
+        2       .142729 0.      YES     2       .098422 45.     YES    +
+        2       .098422-45.     YES     2       .152537 90.     YES
CQUAD4   10600   10600   10276   10280   10281   10277  -89.9311
PCOMP    10601                                   75.     0.      SMEAR  +
+        2       .197887 0.      YES     2       .128542 45.     YES    +
+        2       .128542-45.     YES     2       .187739 90.     YES
CQUAD4   10601   10601   10278   10282   10283   10279  -89.9996
PCOMP    10602                                   75.     0.      SMEAR  +
+        2       .151386 0.      YES     2       .104121 45.     YES    +
+        2       .104121-45.     YES     2       .160976 90.     YES
CQUAD4   10602   10602   10279   10283   10284   10280  -89.9583
PCOMP    10603                                   75.     0.      SMEAR  +
+        2       .15162  0.      YES     2       .099112 45.     YES    +
+        2       .099112-45.     YES     2       .145717 90.     YES
CQUAD4   10603   10603   10280   10284   10285   10281  -89.931
PCOMP    10604                                   75.     0.      SMEAR  +
+        2       .311869 0.      YES     2       .210188 45.     YES    +
+        2       .210188-45.     YES     2       .318695 90.     YES
CQUAD4   10604   10604   10286   10290   10291   10287  -89.9978
PCOMP    10605                                   75.     0.      SMEAR  +
+        2       .302514 0.      YES     2       .201014 45.     YES    +
+        2       .201014-45.     YES     2       .300529 90.     YES
CQUAD4   10605   10605   10287   10291   10292   10288  -89.9722
PCOMP    10606                                   75.     0.      SMEAR  +
+        2       .284123 0.      YES     2       .189434 45.     YES    +
+        2       .189434-45.     YES     2       .284179 90.     YES
CQUAD4   10606   10606   10288   10292   10293   10289  -89.9458
PCOMP    10607                                   75.     0.      SMEAR  +
+        2       .288225 0.      YES     2       .202653 45.     YES    +
+        2       .202653-45.     YES     2       .319734 90.     YES
CQUAD4   10607   10607   10290   10294   10295   10291  -89.9999
PCOMP    10608                                   75.     0.      SMEAR  +
+        2       .298848 0.      YES     2       .197977 45.     YES    +
+        2       .197977-45.     YES     2       .295082 90.     YES
CQUAD4   10608   10608   10291   10295   10296   10292  -89.9722
PCOMP    10609                                   75.     0.      SMEAR  +
+        2       .283918 0.      YES     2       .185809 45.     YES    +
+        2       .185809-45.     YES     2       .27351  90.     YES
CQUAD4   10609   10609   10292   10296   10297   10293  -89.9456
PCOMP    10610                                   75.     0.      SMEAR  +
+        2       .30534  0.      YES     2       .207743 45.     YES    +
+        2       .207743-45.     YES     2       .317889 90.     YES
CQUAD4   10610   10610   10294   10274   10275   10295  -90.0024
PCOMP    10611                                   75.     0.      SMEAR  +
+        2       .303338 0.      YES     2       .199531 45.     YES    +
+        2       .199531-45.     YES     2       .295256 90.     YES
CQUAD4   10611   10611   10295   10275   10276   10296  -89.9724
PCOMP    10612                                   75.     0.      SMEAR  +
+        2       .285313 0.      YES     2       .191493 45.     YES    +
+        2       .191493-45.     YES     2       .289165 90.     YES
CQUAD4   10612   10612   10296   10276   10277   10297  -89.9455
PCOMP    10613                                   75.     0.      SMEAR  +
+        2       .174147 0.      YES     2       .115328 45.     YES    +
+        2       .115328-45.     YES     2       .171836 90.     YES
CQUAD4   10613   10613   10286   10287   10300   10298   167.249
PCOMP    10614                                   75.     0.      SMEAR  +
+        2       .191994 0.      YES     2       .128541 45.     YES    +
+        2       .128541-45.     YES     2       .193114 90.     YES
CQUAD4   10614   10614   10298   10300   10301   10299   169.491
PCOMP    10615                                   75.     0.      SMEAR  +
+        2       .167663 0.      YES     2       .111851 45.     YES    +
+        2       .111851-45.     YES     2       .16789  90.     YES
CQUAD4   10615   10615   10287   10288   10302   10300   166.678
PCOMP    10616                                   75.     0.      SMEAR  +
+        2       .164003 0.      YES     2       .11011  45.     YES    +
+        2       .11011 -45.     YES     2       .166326 90.     YES
CQUAD4   10616   10616   10300   10302   10303   10301   168.848
PCOMP    10617                                   75.     0.      SMEAR  +
+        2       .150816 0.      YES     2       .098985 45.     YES    +
+        2       .098985-45.     YES     2       .14614  90.     YES
CQUAD4   10617   10617   10288   10289   10304   10302   166.103
PCOMP    10618                                   75.     0.      SMEAR  +
+        2       .148525 0.      YES     2       .0997   45.     YES    +
+        2       .0997  -45.     YES     2       .150574 90.     YES
CQUAD4   10618   10618   10302   10304   10305   10303   168.204
PCOMP    10619                                   75.     0.      SMEAR  +
+        2       .064826 0.      YES     2       .043684 45.     YES    +
+        2       .043684-45.     YES     2       .066226 90.     YES
CQUAD4   10619   10619   10306   10310   10311   10307  -89.8544
PCOMP    10620                                   75.     0.      SMEAR  +
+        2       .076901 0.      YES     2       .051279 45.     YES    +
+        2       .051279-45.     YES     2       .076937 90.     YES
CQUAD4   10620   10620   10307   10311   10312   10308  -89.8667
PCOMP    10621                                   75.     0.      SMEAR  +
+        2       .07606  0.      YES     2       .048443 45.     YES    +
+        2       .048443-45.     YES     2       .06927  90.     YES
CQUAD4   10621   10621   10308   10312   10313   10309  -89.9138
PCOMP    10622                                   75.     0.      SMEAR  +
+        2       .068991 0.      YES     2       .044935 45.     YES    +
+        2       .044935-45.     YES     2       .065813 90.     YES
CQUAD4   10622   10622   10310   10314   10315   10311  -89.855
PCOMP    10623                                   75.     0.      SMEAR  +
+        2       .069039 0.      YES     2       .048191 45.     YES    +
+        2       .048191-45.     YES     2       .075535 90.     YES
CQUAD4   10623   10623   10311   10315   10316   10312  -89.8658
PCOMP    10624                                   75.     0.      SMEAR  +
+        2       .069184 0.      YES     2       .045527 45.     YES    +
+        2       .045527-45.     YES     2       .067398 90.     YES
CQUAD4   10624   10624   10312   10316   10317   10313  -89.9123
PCOMP    10625                                   75.     0.      SMEAR  +
+        2       .109549 0.      YES     2       .075922 45.     YES    +
+        2       .075922-45.     YES     2       .118217 90.     YES
CQUAD4   10625   10625   10306   10307   10321   10318   155.983
PCOMP    10626                                   75.     0.      SMEAR  +
+        2       .097059 0.      YES     2       .062441 45.     YES    +
+        2       .062441-45.     YES     2       .090263 90.     YES
CQUAD4   10626   10626   10318   10321   10322   10319   157.987
PCOMP    10627                                   75.     0.      SMEAR  +
+        2       .102258 0.      YES     2       .070019 45.     YES    +
+        2       .070019-45.     YES     2       .107798 90.     YES
CQUAD4   10627   10627   10319   10322   10323   10320   160.065
PCOMP    10628                                   75.     0.      SMEAR  +
+        2       .123719 0.      YES     2       .076975 45.     YES    +
+        2       .076975-45.     YES     2       .107207 90.     YES
CQUAD4   10628   10628   10307   10308   10324   10321   155.683
PCOMP    10629                                   75.     0.      SMEAR  +
+        2       .138437 0.      YES     2       .097596 45.     YES    +
+        2       .097596-45.     YES     2       .154351 90.     YES
CQUAD4   10629   10629   10321   10324   10325   10322   157.609
PCOMP    10630                                   75.     0.      SMEAR  +
+        2       .136534 0.      YES     2       .088135 45.     YES    +
+        2       .088135-45.     YES     2       .127872 90.     YES
CQUAD4   10630   10630   10322   10325   10326   10323   159.605
PCOMP    10631                                   75.     0.      SMEAR  +
+        2       .097671 0.      YES     2       .066758 45.     YES    +
+        2       .066758-45.     YES     2       .102603 90.     YES
CQUAD4   10631   10631   10308   10309   10327   10324   155.383
PCOMP    10632                                   75.     0.      SMEAR  +
+        2       .099031 0.      YES     2       .070842 45.     YES    +
+        2       .070842-45.     YES     2       .113496 90.     YES
CQUAD4   10632   10632   10324   10327   10328   10325   157.232
PCOMP    10633                                   75.     0.      SMEAR  +
+        2       .146768 0.      YES     2       .096464 45.     YES    +
+        2       .096464-45.     YES     2       .142623 90.     YES
CQUAD4   10633   10633   10325   10328   10329   10326   159.153
PCOMP    10634                                   75.     0.      SMEAR  +
+        2       .083611 0.      YES     2       .052957 45.     YES    +
+        2       .052957-45.     YES     2       .075259 90.     YES
CQUAD4   10634   10634   10320   10323   10332   10330   162.209
PCOMP    10635                                   75.     0.      SMEAR  +
+        2       .086822 0.      YES     2       .060933 45.     YES    +
+        2       .060933-45.     YES     2       .095977 90.     YES
CQUAD4   10635   10635   10330   10332   10333   10331   163.862
PCOMP    10636                                   75.     0.      SMEAR  +
+        2       .082223 0.      YES     2       .056156 45.     YES    +
+        2       .056156-45.     YES     2       .086245 90.     YES
CQUAD4   10636   10636   10323   10326   10334   10332   161.671
PCOMP    10637                                   75.     0.      SMEAR  +
+        2       .075911 0.      YES     2       .05454  45.     YES    +
+        2       .05454 -45.     YES     2       .08771  90.     YES
CQUAD4   10637   10637   10332   10334   10335   10333   163.257
PCOMP    10638                                   75.     0.      SMEAR  +
+        2       .103443 0.      YES     2       .067559 45.     YES    +
+        2       .067559-45.     YES     2       .099234 90.     YES
CQUAD4   10638   10638   10326   10329   10336   10334   161.133
PCOMP    10639                                   75.     0.      SMEAR  +
+        2       .115492 0.      YES     2       .074871 45.     YES    +
+        2       .074871-45.     YES     2       .10912  90.     YES
CQUAD4   10639   10639   10334   10336   10337   10335   162.661
PCOMP    10640                                   75.     0.      SMEAR  +
+        2       .129327 0.      YES     2       .086365 45.     YES    +
+        2       .086365-45.     YES     2       .129767 90.     YES
CQUAD4   10640   10640   10277   10281   10341   10338  -89.9202
PCOMP    10641                                   75.     0.      SMEAR  +
+        2       .124322 0.      YES     2       .079911 45.     YES    +
+        2       .079911-45.     YES     2       .115411 90.     YES
CQUAD4   10641   10641   10338   10341   10342   10339  -89.8796
PCOMP    10642                                   75.     0.      SMEAR  +
+        2       .116206 0.      YES     2       .075432 45.     YES    +
+        2       .075432-45.     YES     2       .110091 90.     YES
CQUAD4   10642   10642   10339   10342   10343   10340  -89.8575
PCOMP    10643                                   75.     0.      SMEAR  +
+        2       .138319 0.      YES     2       .087329 45.     YES    +
+        2       .087329-45.     YES     2       .123669 90.     YES
CQUAD4   10643   10643   10281   10285   10344   10341  -89.9205
PCOMP    10644                                   75.     0.      SMEAR  +
+        2       .120611 0.      YES     2       .083128 45.     YES    +
+        2       .083128-45.     YES     2       .128774 90.     YES
CQUAD4   10644   10644   10341   10344   10345   10342  -89.88
PCOMP    10645                                   75.     0.      SMEAR  +
+        2       .121587 0.      YES     2       .078186 45.     YES    +
+        2       .078186-45.     YES     2       .112971 90.     YES
CQUAD4   10645   10645   10342   10345   10346   10343  -89.8576
PCOMP    10646                                   75.     0.      SMEAR  +
+        2       .233129 0.      YES     2       .156471 45.     YES    +
+        2       .156471-45.     YES     2       .236285 90.     YES
CQUAD4   10646   10646   10289   10293   10350   10347  -89.9206
PCOMP    10647                                   75.     0.      SMEAR  +
+        2       .221576 0.      YES     2       .147778 45.     YES    +
+        2       .147778-45.     YES     2       .221757 90.     YES
CQUAD4   10647   10647   10347   10350   10351   10348  -89.8936
PCOMP    10648                                   75.     0.      SMEAR  +
+        2       .191042 0.      YES     2       .129353 45.     YES    +
+        2       .129353-45.     YES     2       .197018 90.     YES
CQUAD4   10648   10648   10348   10351   10352   10349  -89.8717
PCOMP    10649                                   75.     0.      SMEAR  +
+        2       .236264 0.      YES     2       .15984  45.     YES    +
+        2       .15984 -45.     YES     2       .243256 90.     YES
CQUAD4   10649   10649   10293   10297   10353   10350  -89.9207
PCOMP    10650                                   75.     0.      SMEAR  +
+        2       .229796 0.      YES     2       .151336 45.     YES    +
+        2       .151336-45.     YES     2       .224213 90.     YES
CQUAD4   10650   10650   10350   10353   10354   10351  -89.8934
PCOMP    10651                                   75.     0.      SMEAR  +
+        2       .204215 0.      YES     2       .135419 45.     YES    +
+        2       .135419-45.     YES     2       .202043 90.     YES
CQUAD4   10651   10651   10351   10354   10355   10352  -89.8715
PCOMP    10652                                   75.     0.      SMEAR  +
+        2       .243503 0.      YES     2       .16619  45.     YES    +
+        2       .16619 -45.     YES     2       .255066 90.     YES
CQUAD4   10652   10652   10297   10277   10338   10353  -89.9209
PCOMP    10653                                   75.     0.      SMEAR  +
+        2       .228887 0.      YES     2       .156438 45.     YES    +
+        2       .156438-45.     YES     2       .240426 90.     YES
CQUAD4   10653   10653   10353   10338   10339   10354  -89.8933
PCOMP    10654                                   75.     0.      SMEAR  +
+        2       .216718 0.      YES     2       .144101 45.     YES    +
+        2       .144101-45.     YES     2       .215585 90.     YES
CQUAD4   10654   10654   10354   10339   10340   10355  -89.872
PCOMP    10655                                   75.     0.      SMEAR  +
+        2       .131784 0.      YES     2       .088473 45.     YES    +
+        2       .088473-45.     YES     2       .133634 90.     YES
CQUAD4   10655   10655   10305   10304   10359   10356  -89.92
PCOMP    10656                                   75.     0.      SMEAR  +
+        2       .126124 0.      YES     2       .084726 45.     YES    +
+        2       .084726-45.     YES     2       .128054 90.     YES
CQUAD4   10656   10656   10356   10359   10360   10357  -89.9127
PCOMP    10657                                   75.     0.      SMEAR  +
+        2       .134667 0.      YES     2       .090229 45.     YES    +
+        2       .090229-45.     YES     2       .13602  90.     YES
CQUAD4   10657   10657   10357   10360   10361   10358  -89.8914
PCOMP    10658                                   75.     0.      SMEAR  +
+        2       .117179 0.      YES     2       .081792 45.     YES    +
+        2       .081792-45.     YES     2       .128196 90.     YES
CQUAD4   10658   10658   10304   10289   10347   10359  -89.9219
PCOMP    10659                                   75.     0.      SMEAR  +
+        2       .126518 0.      YES     2       .080957 45.     YES    +
+        2       .080957-45.     YES     2       .116353 90.     YES
CQUAD4   10659   10659   10359   10347   10348   10360  -89.9127
PCOMP    10660                                   75.     0.      SMEAR  +
+        2       .128518 0.      YES     2       .086167 45.     YES    +
+        2       .086167-45.     YES     2       .129984 90.     YES
CQUAD4   10660   10660   10360   10348   10349   10361  -89.8942
PCOMP    10661                                   75.     0.      SMEAR  +
+        2       .096343 0.      YES     2       .065394 45.     YES    +
+        2       .065394-45.     YES     2       .099838 90.     YES
CQUAD4   10661   10661   10340   10343   10364   10362  -89.8573
PCOMP    10662                                   75.     0.      SMEAR  +
+        2       .08462  0.      YES     2       .058583 45.     YES    +
+        2       .058583-45.     YES     2       .091128 90.     YES
CQUAD4   10662   10662   10362   10364   10365   10363  -89.8273
PCOMP    10663                                   75.     0.      SMEAR  +
+        2       .082719 0.      YES     2       .056369 45.     YES    +
+        2       .056369-45.     YES     2       .086388 90.     YES
CQUAD4   10663   10663   10363   10365   10310   10306  -89.8263
PCOMP    10664                                   75.     0.      SMEAR  +
+        2       .09894  0.      YES     2       .067602 45.     YES    +
+        2       .067602-45.     YES     2       .103865 90.     YES
CQUAD4   10664   10664   10343   10346   10366   10364  -89.8553
PCOMP    10665                                   75.     0.      SMEAR  +
+        2       .099964 0.      YES     2       .06236  45.     YES    +
+        2       .06236 -45.     YES     2       .087116 90.     YES
CQUAD4   10665   10665   10364   10366   10367   10365  -89.8285
PCOMP    10666                                   75.     0.      SMEAR  +
+        2       .081155 0.      YES     2       .057112 45.     YES    +
+        2       .057112-45.     YES     2       .090182 90.     YES
CQUAD4   10666   10666   10365   10367   10314   10310  -89.8264
PCOMP    10667                                   75.     0.      SMEAR  +
+        2       .163044 0.      YES     2       .109623 45.     YES    +
+        2       .109623-45.     YES     2       .165825 90.     YES
CQUAD4   10667   10667   10349   10352   10370   10368  -89.8567
PCOMP    10668                                   75.     0.      SMEAR  +
+        2       .160554 0.      YES     2       .106964 45.     YES    +
+        2       .106964-45.     YES     2       .160338 90.     YES
CQUAD4   10668   10668   10368   10370   10371   10369  -89.8455
PCOMP    10669                                   75.     0.      SMEAR  +
+        2       .170687 0.      YES     2       .113445 45.     YES    +
+        2       .113445-45.     YES     2       .169647 90.     YES
CQUAD4   10669   10669   10369   10371   10319   10320  -89.8413
PCOMP    10670                                   75.     0.      SMEAR  +
+        2       .187343 0.      YES     2       .111444 45.     YES    +
+        2       .111444-45.     YES     2       .146988 90.     YES
CQUAD4   10670   10670   10352   10355   10372   10370  -89.8568
PCOMP    10671                                   75.     0.      SMEAR  +
+        2       .167496 0.      YES     2       .105624 45.     YES    +
+        2       .105624-45.     YES     2       .149377 90.     YES
CQUAD4   10671   10671   10370   10372   10373   10371  -89.8416
PCOMP    10672                                   75.     0.      SMEAR  +
+        2       .129136 0.      YES     2       .087725 45.     YES    +
+        2       .087725-45.     YES     2       .134039 90.     YES
CQUAD4   10672   10672   10371   10373   10318   10319  -89.8414
PCOMP    10673                                   75.     0.      SMEAR  +
+        2       .178104 0.      YES     2       .119772 45.     YES    +
+        2       .119772-45.     YES     2       .181212 90.     YES
CQUAD4   10673   10673   10355   10340   10362   10372  -89.8559
PCOMP    10674                                   75.     0.      SMEAR  +
+        2       .155059 0.      YES     2       .110567 45.     YES    +
+        2       .110567-45.     YES     2       .176643 90.     YES
CQUAD4   10674   10674   10372   10362   10363   10373  -89.846
PCOMP    10675                                   75.     0.      SMEAR  +
+        2       .142118 0.      YES     2       .097628 45.     YES    +
+        2       .097628-45.     YES     2       .150765 90.     YES
CQUAD4   10675   10675   10373   10363   10306   10318  -89.8428
PCOMP    10676                                   75.     0.      SMEAR  +
+        2       .117972 0.      YES     2       .075059 45.     YES    +
+        2       .075059-45.     YES     2       .107206 90.     YES
CQUAD4   10676   10676   10358   10361   10376   10374  -89.8594
PCOMP    10677                                   75.     0.      SMEAR  +
+        2       .115506 0.      YES     2       .070784 45.     YES    +
+        2       .070784-45.     YES     2       .096847 90.     YES
CQUAD4   10677   10677   10374   10376   10377   10375  -89.8637
PCOMP    10678                                   75.     0.      SMEAR  +
+        2       .117761 0.      YES     2       .08127  45.     YES    +
+        2       .08127 -45.     YES     2       .126048 90.     YES
CQUAD4   10678   10678   10375   10377   10330   10331  -89.8613
PCOMP    10679                                   75.     0.      SMEAR  +
+        2       .094906 0.      YES     2       .067973 45.     YES    +
+        2       .067973-45.     YES     2       .109013 90.     YES
CQUAD4   10679   10679   10361   10349   10368   10376  -89.8552
PCOMP    10680                                   75.     0.      SMEAR  +
+        2       .103605 0.      YES     2       .066637 45.     YES    +
+        2       .066637-45.     YES     2       .096307 90.     YES
CQUAD4   10680   10680   10376   10368   10369   10377  -89.8616
PCOMP    10681                                   75.     0.      SMEAR  +
+        2       .102504 0.      YES     2       .075264 45.     YES    +
+        2       .075264-45.     YES     2       .123288 90.     YES
CQUAD4   10681   10681   10377   10369   10320   10330  -89.8622
PCOMP    10682                                   75.     0.      SMEAR  +
+        2       .170129 0.      YES     2       .110566 45.     YES    +
+        2       .110566-45.     YES     2       .161569 90.     YES
CQUAD4   10682   10682   10378   10379   10383   10382  -158.797
PCOMP    10683                                   75.     0.      SMEAR  +
+        2       .151089 0.      YES     2       .105432 45.     YES    +
+        2       .105432-45.     YES     2       .165206 90.     YES
CQUAD4   10683   10683   10379   10380   10384   10383  -158.478
PCOMP    10684                                   75.     0.      SMEAR  +
+        2       .152149 0.      YES     2       .101744 45.     YES    +
+        2       .101744-45.     YES     2       .153084 90.     YES
CQUAD4   10684   10684   10380   10381   10385   10384  -158.164
PCOMP    10685                                   75.     0.      SMEAR  +
+        2       .174853 0.      YES     2       .117283 45.     YES    +
+        2       .117283-45.     YES     2       .176996 90.     YES
CQUAD4   10685   10685   10382   10383   10387   10386  -156.827
PCOMP    10686                                   75.     0.      SMEAR  +
+        2       .153967 0.      YES     2       .104663 45.     YES    +
+        2       .104663-45.     YES     2       .160023 90.     YES
CQUAD4   10686   10686   10383   10384   10388   10387  -156.571
PCOMP    10687                                   75.     0.      SMEAR  +
+        2       .15238  0.      YES     2       .100773 45.     YES    +
+        2       .100773-45.     YES     2       .149938 90.     YES
CQUAD4   10687   10687   10384   10385   10389   10388  -156.32
PCOMP    10688                                   75.     0.      SMEAR  +
+        2       .317487 0.      YES     2       .208113 45.     YES    +
+        2       .208113-45.     YES     2       .306853 90.     YES
CQUAD4   10688   10688   10390   10391   10395   10394  -167.253
PCOMP    10689                                   75.     0.      SMEAR  +
+        2       .300678 0.      YES     2       .196588 45.     YES    +
+        2       .196588-45.     YES     2       .289086 90.     YES
CQUAD4   10689   10689   10391   10392   10396   10395  -166.68
PCOMP    10690                                   75.     0.      SMEAR  +
+        2       .286231 0.      YES     2       .188475 45.     YES    +
+        2       .188475-45.     YES     2       .279195 90.     YES
CQUAD4   10690   10690   10392   10393   10397   10396  -166.108
PCOMP    10691                                   75.     0.      SMEAR  +
+        2       .313473 0.      YES     2       .203698 45.     YES    +
+        2       .203698-45.     YES     2       .297621 90.     YES
CQUAD4   10691   10691   10394   10395   10399   10398  -164.342
PCOMP    10692                                   75.     0.      SMEAR  +
+        2       .295917 0.      YES     2       .197128 45.     YES    +
+        2       .197128-45.     YES     2       .295467 90.     YES
CQUAD4   10692   10692   10395   10396   10400   10399  -163.855
PCOMP    10693                                   75.     0.      SMEAR  +
+        2       .267846 0.      YES     2       .185258 45.     YES    +
+        2       .185258-45.     YES     2       .287928 90.     YES
CQUAD4   10693   10693   10396   10397   10401   10400  -163.369
PCOMP    10694                                   75.     0.      SMEAR  +
+        2       .306207 0.      YES     2       .208393 45.     YES    +
+        2       .208393-45.     YES     2       .318972 90.     YES
CQUAD4   10694   10694   10398   10399   10379   10378  -161.515
PCOMP    10695                                   75.     0.      SMEAR  +
+        2       .298462 0.      YES     2       .196045 45.     YES    +
+        2       .196045-45.     YES     2       .289672 90.     YES
CQUAD4   10695   10695   10399   10400   10380   10379  -161.12
PCOMP    10696                                   75.     0.      SMEAR  +
+        2       .28651  0.      YES     2       .192792 45.     YES    +
+        2       .192792-45.     YES     2       .291867 90.     YES
CQUAD4   10696   10696   10400   10401   10381   10380  -160.72
PCOMP    10697                                   75.     0.      SMEAR  +
+        2       .170684 0.      YES     2       .113541 45.     YES    +
+        2       .113541-45.     YES     2       .169938 90.     YES
CQUAD4   10697   10697   10390   10402   10404   10391  -90.0016
PCOMP    10698                                   75.     0.      SMEAR  +
+        2       .205645 0.      YES     2       .141371 45.     YES    +
+        2       .141371-45.     YES     2       .218468 90.     YES
CQUAD4   10698   10698   10402   10403   10405   10404  -89.9997
PCOMP    10699                                   75.     0.      SMEAR  +
+        2       .164952 0.      YES     2       .110519 45.     YES    +
+        2       .110519-45.     YES     2       .166604 90.     YES
CQUAD4   10699   10699   10391   10404   10406   10392  -90.0093
PCOMP    10700                                   75.     0.      SMEAR  +
+        2       .179051 0.      YES     2       .118639 45.     YES    +
+        2       .118639-45.     YES     2       .176866 90.     YES
CQUAD4   10700   10700   10404   10405   10407   10406  -90.0094
PCOMP    10701                                   75.     0.      SMEAR  +
+        2       .150032 0.      YES     2       .097863 45.     YES    +
+        2       .097863-45.     YES     2       .143558 90.     YES
CQUAD4   10701   10701   10392   10406   10408   10393  -90.0357
PCOMP    10702                                   75.     0.      SMEAR  +
+        2       .158404 0.      YES     2       .105238 45.     YES    +
+        2       .105238-45.     YES     2       .157311 90.     YES
CQUAD4   10702   10702   10406   10407   10409   10408  -90.0359
PCOMP    10703                                   75.     0.      SMEAR  +
+        2       .132494 0.      YES     2       .084148 45.     YES    +
+        2       .084148-45.     YES     2       .119949 90.     YES
CQUAD4   10703   10703   10410   10411   10415   10414  -156.007
PCOMP    10704                                   75.     0.      SMEAR  +
+        2       .108385 0.      YES     2       .069546 45.     YES    +
+        2       .069546-45.     YES     2       .100252 90.     YES
CQUAD4   10704   10704   10411   10412   10416   10415  -155.704
PCOMP    10705                                   75.     0.      SMEAR  +
+        2       .131075 0.      YES     2       .092621 45.     YES    +
+        2       .092621-45.     YES     2       .146789 90.     YES
CQUAD4   10705   10705   10412   10413   10417   10416  -155.41
PCOMP    10706                                   75.     0.      SMEAR  +
+        2       .114402 0.      YES     2       .080474 45.     YES    +
+        2       .080474-45.     YES     2       .127021 90.     YES
CQUAD4   10706   10706   10414   10415   10419   10418  -154.569
PCOMP    10707                                   75.     0.      SMEAR  +
+        2       .107075 0.      YES     2       .069577 45.     YES    +
+        2       .069577-45.     YES     2       .101657 90.     YES
CQUAD4   10707   10707   10415   10416   10420   10419  -154.321
PCOMP    10708                                   75.     0.      SMEAR  +
+        2       .138138 0.      YES     2       .088007 45.     YES    +
+        2       .088007-45.     YES     2       .125884 90.     YES
CQUAD4   10708   10708   10416   10417   10421   10420  -154.076
PCOMP    10709                                   75.     0.      SMEAR  +
+        2       .208124 0.      YES     2       .136937 45.     YES    +
+        2       .136937-45.     YES     2       .202686 90.     YES
CQUAD4   10709   10709   10410   10422   10425   10411  -90.1452
PCOMP    10710                                   75.     0.      SMEAR  +
+        2       .194039 0.      YES     2       .128928 45.     YES    +
+        2       .128928-45.     YES     2       .192744 90.     YES
CQUAD4   10710   10710   10422   10423   10426   10425  -90.1452
PCOMP    10711                                   75.     0.      SMEAR  +
+        2       .170504 0.      YES     2       .111144 45.     YES    +
+        2       .111144-45.     YES     2       .162927 90.     YES
CQUAD4   10711   10711   10423   10424   10427   10426  -90.145
PCOMP    10712                                   75.     0.      SMEAR  +
+        2       .18906  0.      YES     2       .122896 45.     YES    +
+        2       .122896-45.     YES     2       .179629 90.     YES
CQUAD4   10712   10712   10411   10425   10428   10412  -90.1205
PCOMP    10713                                   75.     0.      SMEAR  +
+        2       .169063 0.      YES     2       .114392 45.     YES    +
+        2       .114392-45.     YES     2       .174114 90.     YES
CQUAD4   10713   10713   10425   10426   10429   10428  -90.1178
PCOMP    10714                                   75.     0.      SMEAR  +
+        2       .155106 0.      YES     2       .105025 45.     YES    +
+        2       .105025-45.     YES     2       .159969 90.     YES
CQUAD4   10714   10714   10426   10427   10430   10429  -90.1178
PCOMP    10715                                   75.     0.      SMEAR  +
+        2       .224558 0.      YES     2       .145753 45.     YES    +
+        2       .145753-45.     YES     2       .2127   90.     YES
CQUAD4   10715   10715   10412   10428   10431   10413  -90.0727
PCOMP    10716                                   75.     0.      SMEAR  +
+        2       .203933 0.      YES     2       .13438  45.     YES    +
+        2       .13438 -45.     YES     2       .199207 90.     YES
CQUAD4   10716   10716   10428   10429   10432   10431  -90.0751
PCOMP    10717                                   75.     0.      SMEAR  +
+        2       .167884 0.      YES     2       .116305 45.     YES    +
+        2       .116305-45.     YES     2       .181032 90.     YES
CQUAD4   10717   10717   10429   10430   10433   10432  -90.074
PCOMP    10718                                   75.     0.      SMEAR  +
+        2       .0869   0.      YES     2       .057801 45.     YES    +
+        2       .057801-45.     YES     2       .086503 90.     YES
CQUAD4   10718   10718   10424   10434   10436   10427  -90.145
PCOMP    10719                                   75.     0.      SMEAR  +
+        2       .061339 0.      YES     2       .043194 45.     YES    +
+        2       .043194-45.     YES     2       .068243 90.     YES
CQUAD4   10719   10719   10434   10435   10437   10436  -90.1447
PCOMP    10720                                   75.     0.      SMEAR  +
+        2       .090272 0.      YES     2       .062271 45.     YES    +
+        2       .062271-45.     YES     2       .096542 90.     YES
CQUAD4   10720   10720   10427   10436   10438   10430  -90.1051
PCOMP    10721                                   75.     0.      SMEAR  +
+        2       .09086  0.      YES     2       .05868  45.     YES    +
+        2       .05868 -45.     YES     2       .08518  90.     YES
CQUAD4   10721   10721   10436   10437   10439   10438  -90.1039
PCOMP    10722                                   75.     0.      SMEAR  +
+        2       .093424 0.      YES     2       .064302 45.     YES    +
+        2       .064302-45.     YES     2       .099482 90.     YES
CQUAD4   10722   10722   10430   10438   10440   10433  -90.0488
PCOMP    10723                                   75.     0.      SMEAR  +
+        2       .083318 0.      YES     2       .057832 45.     YES    +
+        2       .057832-45.     YES     2       .090178 90.     YES
CQUAD4   10723   10723   10438   10439   10441   10440  -90.0539
PCOMP    10724                                   75.     0.      SMEAR  +
+        2       .139208 0.      YES     2       .095515 45.     YES    +
+        2       .095515-45.     YES     2       .147338 90.     YES
CQUAD4   10724   10724   10381   10442   10445   10385  -157.854
PCOMP    10725                                   75.     0.      SMEAR  +
+        2       .146028 0.      YES     2       .094097 45.     YES    +
+        2       .094097-45.     YES     2       .136263 90.     YES
CQUAD4   10725   10725   10442   10443   10446   10445  -157.541
PCOMP    10726                                   75.     0.      SMEAR  +
+        2       .159855 0.      YES     2       .103647 45.     YES    +
+        2       .103647-45.     YES     2       .151087 90.     YES
CQUAD4   10726   10726   10443   10444   10447   10446  -157.232
PCOMP    10727                                   75.     0.      SMEAR  +
+        2       .14564  0.      YES     2       .096159 45.     YES    +
+        2       .096159-45.     YES     2       .142837 90.     YES
CQUAD4   10727   10727   10385   10445   10448   10389  -156.067
PCOMP    10728                                   75.     0.      SMEAR  +
+        2       .135452 0.      YES     2       .094639 45.     YES    +
+        2       .094639-45.     YES     2       .148465 90.     YES
CQUAD4   10728   10728   10445   10446   10449   10448  -155.813
PCOMP    10729                                   75.     0.      SMEAR  +
+        2       .159734 0.      YES     2       .104462 45.     YES    +
+        2       .104462-45.     YES     2       .153651 90.     YES
CQUAD4   10729   10729   10446   10447   10450   10449  -155.561
PCOMP    10730                                   75.     0.      SMEAR  +
+        2       .24325  0.      YES     2       .156768 45.     YES    +
+        2       .156768-45.     YES     2       .227054 90.     YES
CQUAD4   10730   10730   10393   10451   10454   10397  -165.54
PCOMP    10731                                   75.     0.      SMEAR  +
+        2       .222837 0.      YES     2       .146841 45.     YES    +
+        2       .146841-45.     YES     2       .217685 90.     YES
CQUAD4   10731   10731   10451   10452   10455   10454  -164.976
PCOMP    10732                                   75.     0.      SMEAR  +
+        2       .221628 0.      YES     2       .147479 45.     YES    +
+        2       .147479-45.     YES     2       .220808 90.     YES
CQUAD4   10732   10732   10452   10453   10456   10455  -164.413
PCOMP    10733                                   75.     0.      SMEAR  +
+        2       .225971 0.      YES     2       .160516 45.     YES    +
+        2       .160516-45.     YES     2       .255577 90.     YES
CQUAD4   10733   10733   10397   10454   10457   10401  -162.896
PCOMP    10734                                   75.     0.      SMEAR  +
+        2       .230201 0.      YES     2       .15321  45.     YES    +
+        2       .15321 -45.     YES     2       .229429 90.     YES
CQUAD4   10734   10734   10454   10455   10458   10457  -162.411
PCOMP    10735                                   75.     0.      SMEAR  +
+        2       .228664 0.      YES     2       .162195 45.     YES    +
+        2       .162195-45.     YES     2       .25792  90.     YES
CQUAD4   10735   10735   10455   10456   10459   10458  -161.938
PCOMP    10736                                   75.     0.      SMEAR  +
+        2       .240575 0.      YES     2       .163509 45.     YES    +
+        2       .163509-45.     YES     2       .249951 90.     YES
CQUAD4   10736   10736   10401   10457   10442   10381  -160.327
PCOMP    10737                                   75.     0.      SMEAR  +
+        2       .252468 0.      YES     2       .155852 45.     YES    +
+        2       .155852-45.     YES     2       .215089 90.     YES
CQUAD4   10737   10737   10457   10458   10443   10442  -159.935
PCOMP    10738                                   75.     0.      SMEAR  +
+        2       .251193 0.      YES     2       .170521 45.     YES    +
+        2       .170521-45.     YES     2       .26037  90.     YES
CQUAD4   10738   10738   10458   10459   10444   10443  -159.544
PCOMP    10739                                   75.     0.      SMEAR  +
+        2       .146377 0.      YES     2       .088706 45.     YES    +
+        2       .088706-45.     YES     2       .119742 90.     YES
CQUAD4   10739   10739   10409   10460   10463   10408  -169.652
PCOMP    10740                                   75.     0.      SMEAR  +
+        2       .120844 0.      YES     2       .088357 45.     YES    +
+        2       .088357-45.     YES     2       .144226 90.     YES
CQUAD4   10740   10740   10460   10461   10464   10463  -168.95
PCOMP    10741                                   75.     0.      SMEAR  +
+        2       .118146 0.      YES     2       .085984 45.     YES    +
+        2       .085984-45.     YES     2       .139806 90.     YES
CQUAD4   10741   10741   10461   10462   10465   10464  -168.258
PCOMP    10742                                   75.     0.      SMEAR  +
+        2       .127751 0.      YES     2       .085856 45.     YES    +
+        2       .085856-45.     YES     2       .129817 90.     YES
CQUAD4   10742   10742   10408   10463   10451   10393  -167.574
PCOMP    10743                                   75.     0.      SMEAR  +
+        2       .129875 0.      YES     2       .088192 45.     YES    +
+        2       .088192-45.     YES     2       .134701 90.     YES
CQUAD4   10743   10743   10463   10464   10452   10451  -166.947
PCOMP    10744                                   75.     0.      SMEAR  +
+        2       .135281 0.      YES     2       .089206 45.     YES    +
+        2       .089206-45.     YES     2       .132337 90.     YES
CQUAD4   10744   10744   10464   10465   10453   10452  -166.318
PCOMP    10745                                   75.     0.      SMEAR  +
+        2       .140164 0.      YES     2       .091486 45.     YES    +
+        2       .091486-45.     YES     2       .134295 90.     YES
CQUAD4   10745   10745   10444   10466   10468   10447  -156.924
PCOMP    10746                                   75.     0.      SMEAR  +
+        2       .126428 0.      YES     2       .086953 45.     YES    +
+        2       .086953-45.     YES     2       .134432 90.     YES
CQUAD4   10746   10746   10466   10467   10469   10468  -156.615
PCOMP    10747                                   75.     0.      SMEAR  +
+        2       .135657 0.      YES     2       .093671 45.     YES    +
+        2       .093671-45.     YES     2       .145356 90.     YES
CQUAD4   10747   10747   10467   10410   10414   10469  -156.312
PCOMP    10748                                   75.     0.      SMEAR  +
+        2       .134905 0.      YES     2       .089612 45.     YES    +
+        2       .089612-45.     YES     2       .133932 90.     YES
CQUAD4   10748   10748   10447   10468   10470   10450  -155.314
PCOMP    10749                                   75.     0.      SMEAR  +
+        2       .123671 0.      YES     2       .086539 45.     YES    +
+        2       .086539-45.     YES     2       .135947 90.     YES
CQUAD4   10749   10749   10468   10469   10471   10470  -155.067
PCOMP    10750                                   75.     0.      SMEAR  +
+        2       .136599 0.      YES     2       .093609 45.     YES    +
+        2       .093609-45.     YES     2       .144227 90.     YES
CQUAD4   10750   10750   10469   10414   10418   10471  -154.814
PCOMP    10751                                   75.     0.      SMEAR  +
+        2       .191205 0.      YES     2       .125017 45.     YES    +
+        2       .125017-45.     YES     2       .183847 90.     YES
CQUAD4   10751   10751   10453   10472   10474   10456  -163.856
PCOMP    10752                                   75.     0.      SMEAR  +
+        2       .187729 0.      YES     2       .126356 45.     YES    +
+        2       .126356-45.     YES     2       .191338 90.     YES
CQUAD4   10752   10752   10472   10473   10475   10474  -163.301
PCOMP    10753                                   75.     0.      SMEAR  +
+        2       .192806 0.      YES     2       .131799 45.     YES    +
+        2       .131799-45.     YES     2       .202592 90.     YES
CQUAD4   10753   10753   10473   10424   10423   10475  -162.75
PCOMP    10754                                   75.     0.      SMEAR  +
+        2       .227118 0.      YES     2       .143698 45.     YES    +
+        2       .143698-45.     YES     2       .203975 90.     YES
CQUAD4   10754   10754   10456   10474   10476   10459  -161.467
PCOMP    10755                                   75.     0.      SMEAR  +
+        2       .201724 0.      YES     2       .139734 45.     YES    +
+        2       .139734-45.     YES     2       .217478 90.     YES
CQUAD4   10755   10755   10474   10475   10477   10476  -160.992
PCOMP    10756                                   75.     0.      SMEAR  +
+        2       .22684  0.      YES     2       .147515 45.     YES    +
+        2       .147515-45.     YES     2       .215706 90.     YES
CQUAD4   10756   10756   10475   10423   10422   10477  -160.532
PCOMP    10757                                   75.     0.      SMEAR  +
+        2       .246787 0.      YES     2       .154081 45.     YES    +
+        2       .154081-45.     YES     2       .215456 90.     YES
CQUAD4   10757   10757   10459   10476   10466   10444  -159.156
PCOMP    10758                                   75.     0.      SMEAR  +
+        2       .222635 0.      YES     2       .149244 45.     YES    +
+        2       .149244-45.     YES     2       .225097 90.     YES
CQUAD4   10758   10758   10476   10477   10467   10466  -158.766
PCOMP    10759                                   75.     0.      SMEAR  +
+        2       .221411 0.      YES     2       .156741 45.     YES    +
+        2       .156741-45.     YES     2       .248812 90.     YES
CQUAD4   10759   10759   10477   10422   10410   10467  -158.384
PCOMP    10760                                   75.     0.      SMEAR  +
+        2       .105377 0.      YES     2       .069434 45.     YES    +
+        2       .069434-45.     YES     2       .102924 90.     YES
CQUAD4   10760   10760   10462   10478   10480   10465  -167.57
PCOMP    10761                                   75.     0.      SMEAR  +
+        2       .110145 0.      YES     2       .072493 45.     YES    +
+        2       .072493-45.     YES     2       .107335 90.     YES
CQUAD4   10761   10761   10478   10479   10481   10480  -166.882
PCOMP    10762                                   75.     0.      SMEAR  +
+        2       .101791 0.      YES     2       .072069 45.     YES    +
+        2       .072069-45.     YES     2       .114415 90.     YES
CQUAD4   10762   10762   10479   10435   10434   10481  -166.206
PCOMP    10763                                   75.     0.      SMEAR  +
+        2       .103858 0.      YES     2       .070716 45.     YES    +
+        2       .070716-45.     YES     2       .108291 90.     YES
CQUAD4   10763   10763   10465   10480   10472   10453  -165.698
PCOMP    10764                                   75.     0.      SMEAR  +
+        2       .111079 0.      YES     2       .074847 45.     YES    +
+        2       .074847-45.     YES     2       .113461 90.     YES
CQUAD4   10764   10764   10480   10481   10473   10472  -165.071
PCOMP    10765                                   75.     0.      SMEAR  +
+        2       .109707 0.      YES     2       .076035 45.     YES    +
+        2       .076035-45.     YES     2       .118399 90.     YES
CQUAD4   10765   10765   10481   10434   10424   10473  -164.461
PCOMP    10766                                   75.     0.      SMEAR  +
+        2       .184516 0.      YES     2       .122877 45.     YES    +
+        2       .122877-45.     YES     2       .184115 90.     YES
CQUAD4   10766   10766   10282   10482   10483   10283  -90.0003
PCOMP    10767                                   75.     0.      SMEAR  +
+        2       .102144 0.      YES     2       .065374 45.     YES    +
+        2       .065374-45.     YES     2       .093979 90.     YES
CQUAD4   10767   10767   10283   10483   10484   10284  -89.9529
PCOMP    10768                                   75.     0.      SMEAR  +
+        2       .079363 0.      YES     2       .057142 45.     YES    +
+        2       .057142-45.     YES     2       .092063 90.     YES
CQUAD4   10768   10768   10284   10484   10485   10285  -89.9239
PCOMP    10769                                   75.     0.      SMEAR  +
+        2       .068127 0.      YES     2       .043666 45.     YES    +
+        2       .043666-45.     YES     2       .062871 90.     YES
CQUAD4   10769   10769   10482   10486   10487   10483  -90.003
PCOMP    10770                                   75.     0.      SMEAR  +
+        2       .131554 0.      YES     2       .085615 45.     YES    +
+        2       .085615-45.     YES     2       .125292 90.     YES
CQUAD4   10770   10770   10483   10487   10488   10484  -89.9533
PCOMP    10771                                   75.     0.      SMEAR  +
+        2       .078028 0.      YES     2       .052017 45.     YES    +
+        2       .052017-45.     YES     2       .078024 90.     YES
CQUAD4   10771   10771   10484   10488   10489   10485  -89.9253
PCOMP    10772                                   75.     0.      SMEAR  +
+        2       .027214 0.      YES     2       .01813  45.     YES    +
+        2       .01813 -45.     YES     2       .027176 90.     YES
CQUAD4   10772   10772   10486   10490   10491   10487  -89.9406
PCOMP    10773                                   75.     0.      SMEAR  +
+        2       .040691 0.      YES     2       .027232 45.     YES    +
+        2       .027232-45.     YES     2       .041005 90.     YES
CQUAD4   10773   10773   10487   10491   10492   10488  -89.9488
PCOMP    10774                                   75.     0.      SMEAR  +
+        2       .07381  0.      YES     2       .049222 45.     YES    +
+        2       .049222-45.     YES     2       .073856 90.     YES
CQUAD4   10774   10774   10488   10492   10493   10489  -89.9384
PCOMP    10775                                   75.     0.      SMEAR  +
+        2       .043009 0.      YES     2       .028685 45.     YES    +
+        2       .028685-45.     YES     2       .043045 90.     YES
CQUAD4   10775   10775   10314   10494   10495   10315  -89.8551
PCOMP    10776                                   75.     0.      SMEAR  +
+        2       .041218 0.      YES     2       .0275   45.     YES    +
+        2       .0275  -45.     YES     2       .041283 90.     YES
CQUAD4   10776   10776   10315   10495   10496   10316  -89.8572
PCOMP    10777                                   75.     0.      SMEAR  +
+        2       .039522 0.      YES     2       .026343 45.     YES    +
+        2       .026343-45.     YES     2       .039507 90.     YES
CQUAD4   10777   10777   10316   10496   10497   10317  -89.9003
PCOMP    10778                                   75.     0.      SMEAR  +
+        2       .035805 0.      YES     2       .023884 45.     YES    +
+        2       .023884-45.     YES     2       .035848 90.     YES
CQUAD4   10778   10778   10494   10498   10499   10495  -89.8565
PCOMP    10779                                   75.     0.      SMEAR  +
+        2       .032623 0.      YES     2       .021774 45.     YES    +
+        2       .021774-45.     YES     2       .032699 90.     YES
CQUAD4   10779   10779   10495   10499   10500   10496  -89.8595
PCOMP    10780                                   75.     0.      SMEAR  +
+        2       .024703 0.      YES     2       .016282 45.     YES    +
+        2       .016282-45.     YES     2       .024144 90.     YES
CQUAD4   10780   10780   10496   10500   10501   10497  -89.9107
PCOMP    10781                                   75.     0.      SMEAR  +
+        2       .030797 0.      YES     2       .020547 45.     YES    +
+        2       .020547-45.     YES     2       .030844 90.     YES
CQUAD4   10781   10781   10498   10502   10503   10499  -89.8799
PCOMP    10782                                   75.     0.      SMEAR  +
+        2       .024152 0.      YES     2       .016091 45.     YES    +
+        2       .016091-45.     YES     2       .024121 90.     YES
CQUAD4   10782   10782   10499   10503   10504   10500  -89.913
PCOMP    10783                                   75.     0.      SMEAR  +
+        2       .012869 0.      YES     2       .011    45.     YES    +
+        2       .011   -45.     YES     2       .013152 90.     YES
CQUAD4   10783   10783   10500   10504   10505   10501  -89.9073
PCOMP    10784                                   75.     0.      SMEAR  +
+        2       .062401 0.      YES     2       .041639 45.     YES    +
+        2       .041639-45.     YES     2       .062515 90.     YES
CQUAD4   10784   10784   10285   10485   10506   10344  -89.9209
PCOMP    10785                                   75.     0.      SMEAR  +
+        2       .060338 0.      YES     2       .040218 45.     YES    +
+        2       .040218-45.     YES     2       .060315 90.     YES
CQUAD4   10785   10785   10344   10506   10507   10345  -89.8693
PCOMP    10786                                   75.     0.      SMEAR  +
+        2       .060055 0.      YES     2       .040045 45.     YES    +
+        2       .040045-45.     YES     2       .06008  90.     YES
CQUAD4   10786   10786   10345   10507   10508   10346  -89.8516
PCOMP    10787                                   75.     0.      SMEAR  +
+        2       .047148 0.      YES     2       .031391 45.     YES    +
+        2       .031391-45.     YES     2       .047026 90.     YES
CQUAD4   10787   10787   10485   10489   10509   10506  -89.9212
PCOMP    10788                                   75.     0.      SMEAR  +
+        2       .049787 0.      YES     2       .033178 45.     YES    +
+        2       .033178-45.     YES     2       .049748 90.     YES
CQUAD4   10788   10788   10506   10509   10510   10507  -89.8771
PCOMP    10789                                   75.     0.      SMEAR  +
+        2       .045663 0.      YES     2       .030427 45.     YES    +
+        2       .030427-45.     YES     2       .045617 90.     YES
CQUAD4   10789   10789   10507   10510   10511   10508  -89.8538
PCOMP    10790                                   75.     0.      SMEAR  +
+        2       .035187 0.      YES     2       .023471 45.     YES    +
+        2       .023471-45.     YES     2       .035226 90.     YES
CQUAD4   10790   10790   10489   10493   10512   10509  -89.9322
PCOMP    10791                                   75.     0.      SMEAR  +
+        2       .045006 0.      YES     2       .030002 45.     YES    +
+        2       .030002-45.     YES     2       .045    90.     YES
CQUAD4   10791   10791   10509   10512   10513   10510  -89.8957
PCOMP    10792                                   75.     0.      SMEAR  +
+        2       .040267 0.      YES     2       .026854 45.     YES    +
+        2       .026854-45.     YES     2       .040295 90.     YES
CQUAD4   10792   10792   10510   10513   10514   10511  -89.8797
PCOMP    10793                                   75.     0.      SMEAR  +
+        2       .052283 0.      YES     2       .034923 45.     YES    +
+        2       .034923-45.     YES     2       .052487 90.     YES
CQUAD4   10793   10793   10346   10508   10515   10366  -89.8574
PCOMP    10794                                   75.     0.      SMEAR  +
+        2       .050843 0.      YES     2       .033822 45.     YES    +
+        2       .033822-45.     YES     2       .050623 90.     YES
CQUAD4   10794   10794   10366   10515   10516   10367  -89.822
PCOMP    10795                                   75.     0.      SMEAR  +
+        2       .045971 0.      YES     2       .031614 45.     YES    +
+        2       .031614-45.     YES     2       .048871 90.     YES
CQUAD4   10795   10795   10367   10516   10494   10314  -89.8209
PCOMP    10796                                   75.     0.      SMEAR  +
+        2       .043752 0.      YES     2       .025844 45.     YES    +
+        2       .025844-45.     YES     2       .033779 90.     YES
CQUAD4   10796   10796   10508   10511   10517   10515  -89.864
PCOMP    10797                                   75.     0.      SMEAR  +
+        2       .043691 0.      YES     2       .029138 45.     YES    +
+        2       .029138-45.     YES     2       .043722 90.     YES
CQUAD4   10797   10797   10515   10517   10518   10516  -89.8229
PCOMP    10798                                   75.     0.      SMEAR  +
+        2       .040436 0.      YES     2       .026933 45.     YES    +
+        2       .026933-45.     YES     2       .040363 90.     YES
CQUAD4   10798   10798   10516   10518   10498   10494  -89.8217
PCOMP    10799                                   75.     0.      SMEAR  +
+        2       .036728 0.      YES     2       .024451 45.     YES    +
+        2       .024451-45.     YES     2       .036626 90.     YES
CQUAD4   10799   10799   10511   10514   10519   10517  -89.8914
PCOMP    10800                                   75.     0.      SMEAR  +
+        2       .036613 0.      YES     2       .0244   45.     YES    +
+        2       .0244  -45.     YES     2       .036586 90.     YES
CQUAD4   10800   10800   10517   10519   10520   10518  -89.8004
PCOMP    10801                                   75.     0.      SMEAR  +
+        2       .037149 0.      YES     2       .02477  45.     YES    +
+        2       .02477 -45.     YES     2       .037162 90.     YES
CQUAD4   10801   10801   10518   10520   10502   10498  -89.8419
PCOMP    10802                                   75.     0.      SMEAR  +
+        2       .075835 0.      YES     2       .053576 45.     YES    +
+        2       .053576-45.     YES     2       .084894 90.     YES
CQUAD4   10802   10802   10386   10387   10522   10521  -154.947
PCOMP    10803                                   75.     0.      SMEAR  +
+        2       .092119 0.      YES     2       .060967 45.     YES    +
+        2       .060967-45.     YES     2       .090783 90.     YES
CQUAD4   10803   10803   10387   10388   10523   10522  -154.753
PCOMP    10804                                   75.     0.      SMEAR  +
+        2       .092581 0.      YES     2       .065627 45.     YES    +
+        2       .065627-45.     YES     2       .1043   90.     YES
CQUAD4   10804   10804   10388   10389   10524   10523  -154.553
PCOMP    10805                                   75.     0.      SMEAR  +
+        2       .070118 0.      YES     2       .043186 45.     YES    +
+        2       .043186-45.     YES     2       .059441 90.     YES
CQUAD4   10805   10805   10521   10522   10526   10525  -154.005
PCOMP    10806                                   75.     0.      SMEAR  +
+        2       .087061 0.      YES     2       .058174 45.     YES    +
+        2       .058174-45.     YES     2       .08746  90.     YES
CQUAD4   10806   10806   10522   10523   10527   10526  -153.866
PCOMP    10807                                   75.     0.      SMEAR  +
+        2       .084199 0.      YES     2       .051896 45.     YES    +
+        2       .051896-45.     YES     2       .071488 90.     YES
CQUAD4   10807   10807   10523   10524   10528   10527  -153.708
PCOMP    10808                                   75.     0.      SMEAR  +
+        2       .027036 0.      YES     2       .018023 45.     YES    +
+        2       .018023-45.     YES     2       .027034 90.     YES
CQUAD4   10808   10808   10525   10526   10491   10490  -158.015
PCOMP    10809                                   75.     0.      SMEAR  +
+        2       .042567 0.      YES     2       .02837  45.     YES    +
+        2       .02837 -45.     YES     2       .042543 90.     YES
CQUAD4   10809   10809   10526   10527   10492   10491  -157.847
PCOMP    10810                                   75.     0.      SMEAR  +
+        2       .04741  0.      YES     2       .02996  45.     YES    +
+        2       .02996 -45.     YES     2       .042471 90.     YES
CQUAD4   10810   10810   10527   10528   10493   10492  -157.74
PCOMP    10811                                   75.     0.      SMEAR  +
+        2       .057171 0.      YES     2       .038016 45.     YES    +
+        2       .038016-45.     YES     2       .056877 90.     YES
CQUAD4   10811   10811   10418   10419   10530   10529  -153.192
PCOMP    10812                                   75.     0.      SMEAR  +
+        2       .04886  0.      YES     2       .032545 45.     YES    +
+        2       .032545-45.     YES     2       .048774 90.     YES
CQUAD4   10812   10812   10419   10420   10531   10530  -153.007
PCOMP    10813                                   75.     0.      SMEAR  +
+        2       .057441 0.      YES     2       .037829 45.     YES    +
+        2       .037829-45.     YES     2       .056046 90.     YES
CQUAD4   10813   10813   10420   10421   10532   10531  -152.816
PCOMP    10814                                   75.     0.      SMEAR  +
+        2       .046861 0.      YES     2       .03138  45.     YES    +
+        2       .03138 -45.     YES     2       .04728  90.     YES
CQUAD4   10814   10814   10529   10530   10534   10533  -152.652
PCOMP    10815                                   75.     0.      SMEAR  +
+        2       .039923 0.      YES     2       .026513 45.     YES    +
+        2       .026513-45.     YES     2       .039616 90.     YES
CQUAD4   10815   10815   10530   10531   10535   10534  -152.5
PCOMP    10816                                   75.     0.      SMEAR  +
+        2       .032128 0.      YES     2       .021535 45.     YES    +
+        2       .021535-45.     YES     2       .032478 90.     YES
CQUAD4   10816   10816   10531   10532   10536   10535  -152.351
PCOMP    10817                                   75.     0.      SMEAR  +
+        2       .029191 0.      YES     2       .019467 45.     YES    +
+        2       .019467-45.     YES     2       .029209 90.     YES
CQUAD4   10817   10817   10533   10534   10503   10502  -157.044
PCOMP    10818                                   75.     0.      SMEAR  +
+        2       .025371 0.      YES     2       .016896 45.     YES    +
+        2       .016896-45.     YES     2       .025318 90.     YES
CQUAD4   10818   10818   10534   10535   10504   10503  -156.973
PCOMP    10819                                   75.     0.      SMEAR  +
+        2       .017046 0.      YES     2       .011043 45.     YES    +
+        2       .011043-45.     YES     2       .016084 90.     YES
CQUAD4   10819   10819   10535   10536   10505   10504  -156.882
PCOMP    10820                                   75.     0.      SMEAR  +
+        2       .06471  0.      YES     2       .039812 45.     YES    +
+        2       .039812-45.     YES     2       .054727 90.     YES
CQUAD4   10820   10820   10389   10448   10537   10524  -154.359
PCOMP    10821                                   75.     0.      SMEAR  +
+        2       .064607 0.      YES     2       .042902 45.     YES    +
+        2       .042902-45.     YES     2       .064098 90.     YES
CQUAD4   10821   10821   10448   10449   10538   10537  -154.166
PCOMP    10822                                   75.     0.      SMEAR  +
+        2       .057775 0.      YES     2       .041827 45.     YES    +
+        2       .041827-45.     YES     2       .067707 90.     YES
CQUAD4   10822   10822   10449   10450   10539   10538  -153.968
PCOMP    10823                                   75.     0.      SMEAR  +
+        2       .058657 0.      YES     2       .039132 45.     YES    +
+        2       .039132-45.     YES     2       .058739 90.     YES
CQUAD4   10823   10823   10524   10537   10540   10528  -153.555
PCOMP    10824                                   75.     0.      SMEAR  +
+        2       .053649 0.      YES     2       .035801 45.     YES    +
+        2       .035801-45.     YES     2       .053755 90.     YES
CQUAD4   10824   10824   10537   10538   10541   10540  -153.404
PCOMP    10825                                   75.     0.      SMEAR  +
+        2       .051797 0.      YES     2       .034557 45.     YES    +
+        2       .034557-45.     YES     2       .051875 90.     YES
CQUAD4   10825   10825   10538   10539   10542   10541  -153.253
PCOMP    10826                                   75.     0.      SMEAR  +
+        2       .036001 0.      YES     2       .023859 45.     YES    +
+        2       .023859-45.     YES     2       .035575 90.     YES
CQUAD4   10826   10826   10528   10540   10512   10493  -157.648
PCOMP    10827                                   75.     0.      SMEAR  +
+        2       .037175 0.      YES     2       .024798 45.     YES    +
+        2       .024798-45.     YES     2       .03722  90.     YES
CQUAD4   10827   10827   10540   10541   10513   10512  -157.559
PCOMP    10828                                   75.     0.      SMEAR  +
+        2       .036598 0.      YES     2       .02439  45.     YES    +
+        2       .02439 -45.     YES     2       .036571 90.     YES
CQUAD4   10828   10828   10541   10542   10514   10513  -157.48
PCOMP    10829                                   75.     0.      SMEAR  +
+        2       .067577 0.      YES     2       .039644 45.     YES    +
+        2       .039644-45.     YES     2       .051356 90.     YES
CQUAD4   10829   10829   10450   10470   10543   10539  -153.771
PCOMP    10830                                   75.     0.      SMEAR  +
+        2       .058064 0.      YES     2       .03867  45.     YES    +
+        2       .03867 -45.     YES     2       .057946 90.     YES
CQUAD4   10830   10830   10470   10471   10544   10543  -153.587
PCOMP    10831                                   75.     0.      SMEAR  +
+        2       .061635 0.      YES     2       .039004 45.     YES    +
+        2       .039004-45.     YES     2       .055377 90.     YES
CQUAD4   10831   10831   10471   10418   10529   10544  -153.391
PCOMP    10832                                   75.     0.      SMEAR  +
+        2       .053691 0.      YES     2       .032325 45.     YES    +
+        2       .032325-45.     YES     2       .043284 90.     YES
CQUAD4   10832   10832   10539   10543   10545   10542  -153.103
PCOMP    10833                                   75.     0.      SMEAR  +
+        2       .048793 0.      YES     2       .032508 45.     YES    +
+        2       .032508-45.     YES     2       .04873  90.     YES
CQUAD4   10833   10833   10543   10544   10546   10545  -152.945
PCOMP    10834                                   75.     0.      SMEAR  +
+        2       .050653 0.      YES     2       .033781 45.     YES    +
+        2       .033781-45.     YES     2       .05069  90.     YES
CQUAD4   10834   10834   10544   10529   10533   10546  -152.807
PCOMP    10835                                   75.     0.      SMEAR  +
+        2       .034158 0.      YES     2       .022773 45.     YES    +
+        2       .022773-45.     YES     2       .03416  90.     YES
CQUAD4   10835   10835   10542   10545   10519   10514  -157.409
PCOMP    10836                                   75.     0.      SMEAR  +
+        2       .033769 0.      YES     2       .022505 45.     YES    +
+        2       .022505-45.     YES     2       .033747 90.     YES
CQUAD4   10836   10836   10545   10546   10520   10519  -157.276
PCOMP    10837                                   75.     0.      SMEAR  +
+        2       .034271 0.      YES     2       .022873 45.     YES    +
+        2       .022873-45.     YES     2       .034348 90.     YES
CQUAD4   10837   10837   10546   10533   10502   10520  -157.13
PCOMP    11363                                   75.     0.      SMEAR  +
+        2       .193715 0.      YES     2       .127324 45.     YES    +
+        2       .127324-45.     YES     2       .188257 90.     YES
CQUAD4   11363   11363   10299   10301   10550   10547   171.767
PCOMP    11364                                   75.     0.      SMEAR  +
+        2       .066496 0.      YES     2       .047423 45.     YES    +
+        2       .047423-45.     YES     2       .075772 90.     YES
CQUAD4   11364   11364   10547   10550   10551   10548   173.644
PCOMP    11365                                   75.     0.      SMEAR  +
+        2       .072064 0.      YES     2       .049923 45.     YES    +
+        2       .049923-45.     YES     2       .077706 90.     YES
CQUAD4   11365   11365   10548   10551   10552   10549   175.185
PCOMP    11366                                   75.     0.      SMEAR  +
+        2       .157209 0.      YES     2       .103282 45.     YES    +
+        2       .103282-45.     YES     2       .152636 90.     YES
CQUAD4   11366   11366   10301   10303   10553   10550   171.051
PCOMP    11367                                   75.     0.      SMEAR  +
+        2       .129422 0.      YES     2       .090755 45.     YES    +
+        2       .090755-45.     YES     2       .142842 90.     YES
CQUAD4   11367   11367   10550   10553   10554   10551   172.896
PCOMP    11368                                   75.     0.      SMEAR  +
+        2       .079508 0.      YES     2       .05298  45.     YES    +
+        2       .05298 -45.     YES     2       .079432 90.     YES
CQUAD4   11368   11368   10551   10554   10555   10552   174.4
PCOMP    11369                                   75.     0.      SMEAR  +
+        2       .135035 0.      YES     2       .091699 45.     YES    +
+        2       .091699-45.     YES     2       .140063 90.     YES
CQUAD4   11369   11369   10303   10305   10556   10553   170.355
PCOMP    11370                                   75.     0.      SMEAR  +
+        2       .109731 0.      YES     2       .07427  45.     YES    +
+        2       .07427 -45.     YES     2       .113078 90.     YES
CQUAD4   11370   11370   10553   10556   10557   10554   172.135
PCOMP    11371                                   75.     0.      SMEAR  +
+        2       .105292 0.      YES     2       .071265 45.     YES    +
+        2       .071265-45.     YES     2       .108502 90.     YES
CQUAD4   11371   11371   10554   10557   10558   10555   173.6
PCOMP    11372                                   75.     0.      SMEAR  +
+        2       .07572  0.      YES     2       .052751 45.     YES    +
+        2       .052751-45.     YES     2       .082533 90.     YES
CQUAD4   11372   11372   10331   10333   10562   10559   165.55
PCOMP    11373                                   75.     0.      SMEAR  +
+        2       .059527 0.      YES     2       .039656 45.     YES    +
+        2       .039656-45.     YES     2       .05944  90.     YES
CQUAD4   11373   11373   10559   10562   10563   10560   167.019
PCOMP    11374                                   75.     0.      SMEAR  +
+        2       .055619 0.      YES     2       .037065 45.     YES    +
+        2       .037065-45.     YES     2       .055575 90.     YES
CQUAD4   11374   11374   10560   10563   10564   10561   168.189
PCOMP    11375                                   75.     0.      SMEAR  +
+        2       .064649 0.      YES     2       .043056 45.     YES    +
+        2       .043056-45.     YES     2       .064518 90.     YES
CQUAD4   11375   11375   10333   10335   10565   10562   164.881
PCOMP    11376                                   75.     0.      SMEAR  +
+        2       .063709 0.      YES     2       .042475 45.     YES    +
+        2       .042475-45.     YES     2       .063715 90.     YES
CQUAD4   11376   11376   10562   10565   10566   10563   166.317
PCOMP    11377                                   75.     0.      SMEAR  +
+        2       .055195 0.      YES     2       .034861 45.     YES    +
+        2       .034861-45.     YES     2       .049389 90.     YES
CQUAD4   11377   11377   10563   10566   10567   10564   167.438
PCOMP    11378                                   75.     0.      SMEAR  +
+        2       .108936 0.      YES     2       .069902 45.     YES    +
+        2       .069902-45.     YES     2       .100769 90.     YES
CQUAD4   11378   11378   10335   10337   10568   10565   164.227
PCOMP    11379                                   75.     0.      SMEAR  +
+        2       .062699 0.      YES     2       .042958 45.     YES    +
+        2       .042958-45.     YES     2       .066174 90.     YES
CQUAD4   11379   11379   10565   10568   10569   10566   165.612
PCOMP    11380                                   75.     0.      SMEAR  +
+        2       .040843 0.      YES     2       .027232 45.     YES    +
+        2       .027232-45.     YES     2       .040854 90.     YES
CQUAD4   11380   11380   10566   10569   10570   10567   166.696
PCOMP    11381                                   75.     0.      SMEAR  +
+        2       .119139 0.      YES     2       .07169  45.     YES    +
+        2       .07169 -45.     YES     2       .095932 90.     YES
CQUAD4   11381   11381   10558   10557   10574   10571  -89.9218
PCOMP    11382                                   75.     0.      SMEAR  +
+        2       .108583 0.      YES     2       .072298 45.     YES    +
+        2       .072298-45.     YES     2       .108312 90.     YES
CQUAD4   11382   11382   10571   10574   10575   10572  -89.9235
PCOMP    11383                                   75.     0.      SMEAR  +
+        2       .098639 0.      YES     2       .068    45.     YES    +
+        2       .068   -45.     YES     2       .10536  90.     YES
CQUAD4   11383   11383   10572   10575   10576   10573  -89.9088
PCOMP    11384                                   75.     0.      SMEAR  +
+        2       .089835 0.      YES     2       .066717 45.     YES    +
+        2       .066717-45.     YES     2       .110317 90.     YES
CQUAD4   11384   11384   10557   10556   10577   10574  -89.9204
PCOMP    11385                                   75.     0.      SMEAR  +
+        2       .095418 0.      YES     2       .067097 45.     YES    +
+        2       .067097-45.     YES     2       .105872 90.     YES
CQUAD4   11385   11385   10574   10577   10578   10575  -89.9225
PCOMP    11386                                   75.     0.      SMEAR  +
+        2       .098845 0.      YES     2       .063302 45.     YES    +
+        2       .063302-45.     YES     2       .09106  90.     YES
CQUAD4   11386   11386   10575   10578   10579   10576  -89.9032
PCOMP    11387                                   75.     0.      SMEAR  +
+        2       .103905 0.      YES     2       .071916 45.     YES    +
+        2       .071916-45.     YES     2       .111843 90.     YES
CQUAD4   11387   11387   10556   10305   10356   10577  -89.9219
PCOMP    11388                                   75.     0.      SMEAR  +
+        2       .091356 0.      YES     2       .060898 45.     YES    +
+        2       .060898-45.     YES     2       .091339 90.     YES
CQUAD4   11388   11388   10577   10356   10357   10578  -89.9217
PCOMP    11389                                   75.     0.      SMEAR  +
+        2       .103832 0.      YES     2       .069615 45.     YES    +
+        2       .069615-45.     YES     2       .105014 90.     YES
CQUAD4   11389   11389   10578   10357   10358   10579  -89.8977
PCOMP    11390                                   75.     0.      SMEAR  +
+        2       .092789 0.      YES     2       .05668  45.     YES    +
+        2       .05668 -45.     YES     2       .077252 90.     YES
CQUAD4   11390   11390   10573   10576   10582   10580  -89.8589
PCOMP    11391                                   75.     0.      SMEAR  +
+        2       .069639 0.      YES     2       .051811 45.     YES    +
+        2       .051811-45.     YES     2       .085793 90.     YES
CQUAD4   11391   11391   10580   10582   10583   10581  -89.8703
PCOMP    11392                                   75.     0.      SMEAR  +
+        2       .065296 0.      YES     2       .042936 45.     YES    +
+        2       .042936-45.     YES     2       .063513 90.     YES
CQUAD4   11392   11392   10581   10583   10560   10561  -89.8735
PCOMP    11393                                   75.     0.      SMEAR  +
+        2       .077454 0.      YES     2       .052318 45.     YES    +
+        2       .052318-45.     YES     2       .079499 90.     YES
CQUAD4   11393   11393   10576   10579   10584   10582  -89.8587
PCOMP    11394                                   75.     0.      SMEAR  +
+        2       .073796 0.      YES     2       .049788 45.     YES    +
+        2       .049788-45.     YES     2       .075567 90.     YES
CQUAD4   11394   11394   10582   10584   10585   10583  -89.8755
PCOMP    11395                                   75.     0.      SMEAR  +
+        2       .074815 0.      YES     2       .051032 45.     YES    +
+        2       .051032-45.     YES     2       .07828  90.     YES
CQUAD4   11395   11395   10583   10585   10559   10560  -89.8778
PCOMP    11396                                   75.     0.      SMEAR  +
+        2       .090193 0.      YES     2       .05985  45.     YES    +
+        2       .05985 -45.     YES     2       .089357 90.     YES
CQUAD4   11396   11396   10579   10358   10374   10584  -89.8568
PCOMP    11397                                   75.     0.      SMEAR  +
+        2       .075902 0.      YES     2       .052945 45.     YES    +
+        2       .052945-45.     YES     2       .082932 90.     YES
CQUAD4   11397   11397   10584   10374   10375   10585  -89.8726
PCOMP    11398                                   75.     0.      SMEAR  +
+        2       .09722  0.      YES     2       .069089 45.     YES    +
+        2       .069089-45.     YES     2       .110048 90.     YES
CQUAD4   11398   11398   10585   10375   10331   10559  -89.8684
PCOMP    11399                                   75.     0.      SMEAR  +
+        2       .232841 0.      YES     2       .156621 45.     YES    +
+        2       .156621-45.     YES     2       .237021 90.     YES
CQUAD4   11399   11399   10403   10586   10588   10405  -90.001
PCOMP    11400                                   75.     0.      SMEAR  +
+        2       .081125 0.      YES     2       .056065 45.     YES    +
+        2       .056065-45.     YES     2       .087069 90.     YES
CQUAD4   11400   11400   10586   10587   10589   10588  -90.0005
PCOMP    11401                                   75.     0.      SMEAR  +
+        2       .083077 0.      YES     2       .05503  45.     YES    +
+        2       .05503 -45.     YES     2       .082013 90.     YES
CQUAD4   11401   11401   10587   10549   10552   10589  -90.0025
PCOMP    11402                                   75.     0.      SMEAR  +
+        2       .177893 0.      YES     2       .116287 45.     YES    +
+        2       .116287-45.     YES     2       .170968 90.     YES
CQUAD4   11402   11402   10405   10588   10590   10407  -89.9995
PCOMP    11403                                   75.     0.      SMEAR  +
+        2       .15308  0.      YES     2       .100034 45.     YES    +
+        2       .100034-45.     YES     2       .147022 90.     YES
CQUAD4   11403   11403   10588   10589   10591   10590  -89.9996
PCOMP    11404                                   75.     0.      SMEAR  +
+        2       .080857 0.      YES     2       .051086 45.     YES    +
+        2       .051086-45.     YES     2       .0724   90.     YES
CQUAD4   11404   11404   10589   10552   10555   10591  -90.0027
PCOMP    11405                                   75.     0.      SMEAR  +
+        2       .134896 0.      YES     2       .093335 45.     YES    +
+        2       .093335-45.     YES     2       .14511  90.     YES
CQUAD4   11405   11405   10407   10590   10592   10409  -90.0258
PCOMP    11406                                   75.     0.      SMEAR  +
+        2       .122121 0.      YES     2       .077571 45.     YES    +
+        2       .077571-45.     YES     2       .110591 90.     YES
CQUAD4   11406   11406   10590   10591   10593   10592  -90.0255
PCOMP    11407                                   75.     0.      SMEAR  +
+        2       .106047 0.      YES     2       .072117 45.     YES    +
+        2       .072117-45.     YES     2       .110305 90.     YES
CQUAD4   11407   11407   10591   10555   10558   10593  -90.0259
PCOMP    11408                                   75.     0.      SMEAR  +
+        2       .054784 0.      YES     2       .037516 45.     YES    +
+        2       .037516-45.     YES     2       .057763 90.     YES
CQUAD4   11408   11408   10435   10594   10596   10437  -90.1457
PCOMP    11409                                   75.     0.      SMEAR  +
+        2       .055388 0.      YES     2       .036942 45.     YES    +
+        2       .036942-45.     YES     2       .055439 90.     YES
CQUAD4   11409   11409   10594   10595   10597   10596  -90.1415
PCOMP    11410                                   75.     0.      SMEAR  +
+        2       .053916 0.      YES     2       .035918 45.     YES    +
+        2       .035918-45.     YES     2       .053839 90.     YES
CQUAD4   11410   11410   10595   10561   10564   10597  -90.1431
PCOMP    11411                                   75.     0.      SMEAR  +
+        2       .084567 0.      YES     2       .053124 45.     YES    +
+        2       .053124-45.     YES     2       .074804 90.     YES
CQUAD4   11411   11411   10437   10596   10598   10439  -90.0939
PCOMP    11412                                   75.     0.      SMEAR  +
+        2       .051406 0.      YES     2       .03479  45.     YES    +
+        2       .03479 -45.     YES     2       .052965 90.     YES
CQUAD4   11412   11412   10596   10597   10599   10598  -90.0876
PCOMP    11413                                   75.     0.      SMEAR  +
+        2       .049311 0.      YES     2       .033126 45.     YES    +
+        2       .033126-45.     YES     2       .050067 90.     YES
CQUAD4   11413   11413   10597   10564   10567   10599  -90.0905
PCOMP    11414                                   75.     0.      SMEAR  +
+        2       .066649 0.      YES     2       .044419 45.     YES    +
+        2       .044419-45.     YES     2       .066608 90.     YES
CQUAD4   11414   11414   10439   10598   10600   10441  -90.0422
PCOMP    11415                                   75.     0.      SMEAR  +
+        2       .046143 0.      YES     2       .030774 45.     YES    +
+        2       .030774-45.     YES     2       .046178 90.     YES
CQUAD4   11415   11415   10598   10599   10601   10600  -90.0485
PCOMP    11416                                   75.     0.      SMEAR  +
+        2       .039755 0.      YES     2       .026513 45.     YES    +
+        2       .026513-45.     YES     2       .039784 90.     YES
CQUAD4   11416   11416   10599   10567   10570   10601  -90.0432
PCOMP    11417                                   75.     0.      SMEAR  +
+        2       .110445 0.      YES     2       .072431 45.     YES    +
+        2       .072431-45.     YES     2       .106847 90.     YES
CQUAD4   11417   11417   10558   10571   10602   10593  -173.973
PCOMP    11418                                   75.     0.      SMEAR  +
+        2       .108082 0.      YES     2       .072661 45.     YES    +
+        2       .072661-45.     YES     2       .1099   90.     YES
CQUAD4   11418   11418   10571   10572   10603   10602  -173.154
PCOMP    11419                                   75.     0.      SMEAR  +
+        2       .104509 0.      YES     2       .068574 45.     YES    +
+        2       .068574-45.     YES     2       .101212 90.     YES
CQUAD4   11419   11419   10572   10573   10604   10603  -172.339
PCOMP    11420                                   75.     0.      SMEAR  +
+        2       .105052 0.      YES     2       .068977 45.     YES    +
+        2       .068977-45.     YES     2       .10188  90.     YES
CQUAD4   11420   11420   10593   10602   10605   10592  -172.804
PCOMP    11421                                   75.     0.      SMEAR  +
+        2       .112302 0.      YES     2       .067276 45.     YES    +
+        2       .067276-45.     YES     2       .089526 90.     YES
CQUAD4   11421   11421   10602   10603   10606   10605  -172.02
PCOMP    11422                                   75.     0.      SMEAR  +
+        2       .103309 0.      YES     2       .065689 45.     YES    +
+        2       .065689-45.     YES     2       .093757 90.     YES
CQUAD4   11422   11422   10603   10604   10607   10606  -171.238
PCOMP    11423                                   75.     0.      SMEAR  +
+        2       .108595 0.      YES     2       .072487 45.     YES    +
+        2       .072487-45.     YES     2       .108865 90.     YES
CQUAD4   11423   11423   10592   10605   10460   10409  -171.341
PCOMP    11424                                   75.     0.      SMEAR  +
+        2       .109366 0.      YES     2       .074556 45.     YES    +
+        2       .074556-45.     YES     2       .114301 90.     YES
CQUAD4   11424   11424   10605   10606   10461   10460  -170.596
PCOMP    11425                                   75.     0.      SMEAR  +
+        2       .091914 0.      YES     2       .064842 45.     YES    +
+        2       .064842-45.     YES     2       .102612 90.     YES
CQUAD4   11425   11425   10606   10607   10462   10461  -169.85
PCOMP    11426                                   75.     0.      SMEAR  +
+        2       .093624 0.      YES     2       .057134 45.     YES    +
+        2       .057134-45.     YES     2       .077778 90.     YES
CQUAD4   11426   11426   10573   10580   10608   10604  -171.528
PCOMP    11427                                   75.     0.      SMEAR  +
+        2       .076314 0.      YES     2       .051854 45.     YES    +
+        2       .051854-45.     YES     2       .079249 90.     YES
CQUAD4   11427   11427   10580   10581   10609   10608  -170.723
PCOMP    11428                                   75.     0.      SMEAR  +
+        2       .066277 0.      YES     2       .04413  45.     YES    +
+        2       .04413 -45.     YES     2       .066113 90.     YES
CQUAD4   11428   11428   10581   10561   10595   10609  -169.924
PCOMP    11429                                   75.     0.      SMEAR  +
+        2       .080729 0.      YES     2       .05508  45.     YES    +
+        2       .05508 -45.     YES     2       .08451  90.     YES
CQUAD4   11429   11429   10604   10608   10610   10607  -170.462
PCOMP    11430                                   75.     0.      SMEAR  +
+        2       .071688 0.      YES     2       .048371 45.     YES    +
+        2       .048371-45.     YES     2       .073425 90.     YES
CQUAD4   11430   11430   10608   10609   10611   10610  -169.691
PCOMP    11431                                   75.     0.      SMEAR  +
+        2       .068325 0.      YES     2       .045026 45.     YES    +
+        2       .045026-45.     YES     2       .066752 90.     YES
CQUAD4   11431   11431   10609   10595   10594   10611  -168.925
PCOMP    11432                                   75.     0.      SMEAR  +
+        2       .091944 0.      YES     2       .05448  45.     YES    +
+        2       .05448 -45.     YES     2       .071496 90.     YES
CQUAD4   11432   11432   10607   10610   10478   10462  -169.114
PCOMP    11433                                   75.     0.      SMEAR  +
+        2       .095995 0.      YES     2       .064676 45.     YES    +
+        2       .064676-45.     YES     2       .098033 90.     YES
CQUAD4   11433   11433   10610   10611   10479   10478  -168.369
PCOMP    11434                                   75.     0.      SMEAR  +
+        2       .08819  0.      YES     2       .055788 45.     YES    +
+        2       .055788-45.     YES     2       .079174 90.     YES
CQUAD4   11434   11434   10611   10594   10435   10479  -167.643
PSOLID   1       4       0
CHEXA    11159   1       10483   10482   10282   10283   10522   10521  +
+        10386   10387
CHEXA    11160   1       10484   10483   10283   10284   10523   10522  +
+        10387   10388
CHEXA    11161   1       10487   10486   10482   10483   10526   10525  +
+        10521   10522
CHEXA    11162   1       10485   10484   10284   10285   10524   10523  +
+        10388   10389
CHEXA    11163   1       10488   10487   10483   10484   10527   10526  +
+        10522   10523
CHEXA    11164   1       10506   10485   10285   10344   10537   10524  +
+        10389   10448
CHEXA    11165   1       10489   10488   10484   10485   10528   10527  +
+        10523   10524
CHEXA    11166   1       10507   10506   10344   10345   10538   10537  +
+        10448   10449
CHEXA    11167   1       10509   10489   10485   10506   10540   10528  +
+        10524   10537
CHEXA    11168   1       10508   10507   10345   10346   10539   10538  +
+        10449   10450
CHEXA    11169   1       10510   10509   10506   10507   10541   10540  +
+        10537   10538
CHEXA    11170   1       10515   10508   10346   10366   10543   10539  +
+        10450   10470
CHEXA    11171   1       10511   10510   10507   10508   10542   10541  +
+        10538   10539
CHEXA    11172   1       10516   10515   10366   10367   10544   10543  +
+        10470   10471
CHEXA    11173   1       10517   10511   10508   10515   10545   10542  +
+        10539   10543
CHEXA    11174   1       10494   10516   10367   10314   10529   10544  +
+        10471   10418
CHEXA    11175   1       10518   10517   10515   10516   10546   10545  +
+        10543   10544
CHEXA    11176   1       10495   10494   10314   10315   10530   10529  +
+        10418   10419
CHEXA    11177   1       10498   10518   10516   10494   10533   10546  +
+        10544   10529
CHEXA    11178   1       10496   10495   10315   10316   10531   10530  +
+        10419   10420
$ ... 8 like lines cut
CPENTA   11183   1       10491   10487   10526   10490   10486   10525
CPENTA   11184   1       10492   10488   10527   10491   10487   10526
CPENTA   11185   1       10493   10489   10528   10492   10488   10527
CPENTA   11186   1       10512   10509   10540   10493   10489   10528
CPENTA   11187   1       10513   10510   10541   10512   10509   10540
CPENTA   11188   1       10514   10511   10542   10513   10510   10541
CPENTA   11189   1       10519   10517   10545   10514   10511   10542
CPENTA   11190   1       10520   10518   10546   10519   10517   10545
CPENTA   11191   1       10502   10498   10533   10520   10518   10546
CPENTA   11192   1       10503   10499   10534   10502   10498   10533
CPENTA   11193   1       10504   10500   10535   10503   10499   10534
CPENTA   11194   1       10505   10501   10536   10504   10500   10535
CHEXA    11590   1       10550   10301   10299   10547   10588   10405  +
+        10403   10586
CHEXA    11591   1       10551   10550   10547   10548   10589   10588  +
+        10586   10587
CHEXA    11592   1       10553   10303   10301   10550   10590   10407  +
+        10405   10588
CHEXA    11593   1       10554   10553   10550   10551   10591   10590  +
+        10588   10589
CHEXA    11594   1       10556   10305   10303   10553   10592   10409  +
+        10407   10590
CHEXA    11595   1       10557   10556   10553   10554   10593   10592  +
+        10590   10591
CHEXA    11596   1       10356   10305   10556   10577   10460   10409  +
+        10592   10605
CHEXA    11597   1       10577   10556   10557   10574   10605   10592  +
+        10593   10602
CHEXA    11598   1       10357   10356   10577   10578   10461   10460  +
+        10605   10606
CHEXA    11599   1       10578   10577   10574   10575   10606   10605  +
+        10602   10603
CHEXA    11600   1       10358   10357   10578   10579   10462   10461  +
+        10606   10607
CHEXA    11601   1       10579   10578   10575   10576   10607   10606  +
+        10603   10604
CHEXA    11602   1       10374   10358   10579   10584   10478   10462  +
+        10607   10610
CHEXA    11603   1       10584   10579   10576   10582   10610   10607  +
+        10604   10608
CHEXA    11604   1       10375   10374   10584   10585   10479   10478  +
+        10610   10611
CHEXA    11605   1       10585   10584   10582   10583   10611   10610  +
+        10608   10609
CHEXA    11606   1       10331   10375   10585   10559   10435   10479  +
+        10611   10594
CHEXA    11607   1       10559   10585   10583   10560   10594   10611  +
+        10609   10595
CHEXA    11608   1       10562   10333   10331   10559   10596   10437  +
+        10435   10594
CHEXA    11609   1       10563   10562   10559   10560   10597   10596  +
+        10594   10595
$ ... 8 like lines cut
CPENTA   11614   1       10552   10589   10551   10549   10587   10548
CPENTA   11615   1       10555   10591   10554   10552   10589   10551
CPENTA   11616   1       10558   10593   10557   10555   10591   10554
CPENTA   11617   1       10574   10571   10602   10557   10558   10593
CPENTA   11618   1       10575   10572   10603   10574   10571   10602
CPENTA   11619   1       10576   10573   10604   10575   10572   10603
CPENTA   11620   1       10582   10580   10608   10576   10573   10604
CPENTA   11621   1       10583   10581   10609   10582   10580   10608
CPENTA   11622   1       10560   10561   10595   10583   10581   10609
CPENTA   11623   1       10564   10597   10563   10561   10595   10560
CPENTA   11624   1       10567   10599   10566   10564   10597   10563
CPENTA   11625   1       10570   10601   10569   10567   10599   10566
MAT1     4       400000. 150000. .33     .0252   1.8-5   75.
MAT1     1       1.05+7  3.947+6 .33     .101
MAT8     2       1.04+7  1.04+7  .0404   710000. 473333. 473333. .0564  +
+        1.75-6  1.75-6  75.
GRID     10274           173.435-73.0359 121.851
GRID     10275           181.588-94.021  121.34
GRID     10276           189.856-114.963 120.844
GRID     10277           198.24 -135.859 120.362
GRID     10278           153.595-73.0361 121.617
GRID     10279           162.599-94.0073 121.116
GRID     10280           171.696-114.941 120.63
GRID     10281           180.885-135.835 120.157
GRID     10282           133.756-73.0359 120.991
GRID     10283           143.61 -93.9935 120.517
GRID     10284           153.535-114.919 120.057
GRID     10285           163.531-135.811 119.61
GRID     10286           252.819-73.0359 119.243
GRID     10287           257.56 -94.0578 118.845
GRID     10288           262.511-115.032 118.458
GRID     10289           267.674-135.955 118.082
GRID     10290           226.358-73.0349 120.703
GRID     10291           232.236-94.0455 120.242
GRID     10292           238.294-115.009 119.794
GRID     10293           244.529-135.923 119.359
$ ... 318 like lines cut
CQUAD4     10921   10921   10387   10283   10282   10386     0.0
CQUAD4     10922   10922   10388   10284   10283   10387     0.0
CQUAD4     10923   10923   10389   10285   10284   10388     0.0
CQUAD4     10924   10924   10448   10344   10285   10389     0.0
CQUAD4     10925   10925   10449   10345   10344   10448     0.0
CQUAD4     10926   10926   10450   10346   10345   10449     0.0
CQUAD4     10927   10927   10470   10366   10346   10450     0.0
CQUAD4     10928   10928   10471   10367   10366   10470     0.0
CQUAD4     10929   10929   10418   10314   10367   10471     0.0
CQUAD4     10930   10930   10419   10315   10314   10418     0.0
CQUAD4     10931   10931   10420   10316   10315   10419     0.0
CQUAD4     10932   10932   10421   10317   10316   10420     0.0
CQUAD4     10933   10933   10379   10275   10274   10378     0.0
CQUAD4     10934   10934   10380   10276   10275   10379     0.0
CQUAD4     10935   10935   10381   10277   10276   10380     0.0
CQUAD4     10936   10936   10442   10338   10277   10381     0.0
CQUAD4     10937   10937   10443   10339   10338   10442     0.0
CQUAD4     10938   10938   10444   10340   10339   10443     0.0
CQUAD4     10939   10939   10466   10362   10340   10444     0.0
CQUAD4     10940   10940   10467   10363   10362   10466     0.0
$ ... 63 like lines cut
PBARL    10838     1             BAR                                    +
+       4.      .25
CBAR       10838   10838   10386   10387     0.0     0.0     1.0
CBAR       10839   10838   10387   10388     0.0     0.0     1.0
CBAR       10840   10838   10388   10389     0.0     0.0     1.0
CBAR       10841   10838   10389   10448     0.0     0.0     1.0
CBAR       10842   10838   10448   10449     0.0     0.0     1.0
CBAR       10843   10838   10449   10450     0.0     0.0     1.0
CBAR       10844   10838   10450   10470     0.0     0.0     1.0
CBAR       10845   10838   10470   10471     0.0     0.0     1.0
CBAR       10846   10838   10471   10418     0.0     0.0     1.0
CBAR       10847   10838   10418   10419     0.0     0.0     1.0
CBAR       10848   10838   10419   10420     0.0     0.0     1.0
CBAR       10849   10838   10420   10421     0.0     0.0     1.0
CBAR       10850   10838   10378   10379     0.0     0.0     1.0
CBAR       10851   10838   10379   10380     0.0     0.0     1.0
CBAR       10852   10838   10380   10381     0.0     0.0     1.0
CBAR       10853   10838   10381   10442     0.0     0.0     1.0
CBAR       10854   10838   10442   10443     0.0     0.0     1.0
CBAR       10855   10838   10443   10444     0.0     0.0     1.0
CBAR       10856   10838   10444   10466     0.0     0.0     1.0
CBAR       10857   10838   10466   10467     0.0     0.0     1.0
$ ... 146 like lines cut
